Version 4
SHEET 1 880 680
WIRE -416 32 -432 32
WIRE -320 32 -352 32
WIRE -224 32 -240 32
WIRE 128 176 32 176
WIRE 224 176 208 176
WIRE -432 192 -432 32
WIRE -368 192 -432 192
WIRE -224 192 -224 32
WIRE -224 192 -288 192
WIRE -176 192 -224 192
WIRE 224 192 224 176
WIRE 80 208 32 208
WIRE 80 256 80 208
FLAG 80 336 0
FLAG 224 192 0
FLAG -432 192 0
SYMBOL AutoGenerated\\NX2301P -80 192 R0
SYMATTR InstName U1
SYMBOL res 112 192 R270
WINDOW 0 32 56 VTop 2
WINDOW 3 0 56 VBottom 2
SYMATTR InstName R1
SYMATTR Value 3.3k
SYMBOL voltage 80 240 R0
WINDOW 123 0 0 Left 0
WINDOW 39 0 0 Left 0
SYMATTR InstName V2
SYMATTR Value 4.2
SYMBOL res -384 208 R270
WINDOW 0 32 56 VTop 2
WINDOW 3 0 56 VBottom 2
SYMATTR InstName R2
SYMATTR Value 21
SYMBOL AutoGenerated\\0603_150060SS55040 -384 32 R180
WINDOW 3 5 25 Top 2
SYMATTR InstName U2
SYMBOL res -336 48 R270
WINDOW 0 18 105 VTop 2
WINDOW 3 0 56 VBottom 2
SYMATTR InstName R3
SYMATTR Value 1k
TEXT -336 296 Left 2 !.tran 0 50u 0 0.1u startup
