Version 4
SHEET 1 1008 680
WIRE 928 16 752 16
WIRE 352 32 176 32
WIRE 752 32 752 16
WIRE 928 32 928 16
WIRE 176 48 176 32
WIRE 352 48 352 32
WIRE 752 144 752 112
WIRE 176 160 176 128
WIRE 688 192 528 192
WIRE 112 208 -48 208
WIRE 528 224 528 192
WIRE -48 240 -48 208
WIRE 752 288 752 240
WIRE 176 304 176 256
WIRE 528 352 528 304
WIRE -48 368 -48 320
FLAG -48 368 0
FLAG 352 128 0
FLAG 176 384 0
FLAG 528 352 0
FLAG 928 112 0
FLAG 752 368 0
SYMBOL npn 112 160 R0
SYMATTR InstName Q1
SYMATTR Value PBHV8115T
SYMBOL voltage -48 224 R0
WINDOW 123 0 0 Left 0
WINDOW 39 0 0 Left 0
SYMATTR InstName V1
SYMATTR Value 5.7
SYMBOL voltage 352 32 R0
WINDOW 123 0 0 Left 0
WINDOW 39 0 0 Left 0
SYMATTR InstName V2
SYMATTR Value 58.8
SYMBOL res 160 32 R0
SYMATTR InstName R1
SYMATTR Value 100
SYMBOL res 160 288 R0
SYMATTR InstName R2
SYMATTR Value 166.67
SYMBOL npn 688 144 R0
SYMATTR InstName Q2
SYMATTR Value MJD340
SYMBOL voltage 528 208 R0
WINDOW 123 0 0 Left 0
WINDOW 39 0 0 Left 0
SYMATTR InstName V3
SYMATTR Value 5.7
SYMBOL voltage 928 16 R0
WINDOW 123 0 0 Left 0
WINDOW 39 0 0 Left 0
SYMATTR InstName V4
SYMATTR Value 58.8
SYMBOL res 736 16 R0
SYMATTR InstName R3
SYMATTR Value 100
SYMBOL res 736 272 R0
SYMATTR InstName R4
SYMATTR Value 166.67
TEXT 392 464 Left 2 !.tran 0 1u 0 0.1u
